Version 4
SHEET 1 880 680
WIRE 144 32 16 32
WIRE 288 32 224 32
WIRE 16 112 16 32
WIRE 288 112 288 32
WIRE 16 224 16 192
WIRE 288 224 288 176
WIRE 288 224 176 224
WIRE 176 240 176 224
FLAG 176 240 0
FLAG 16 224 0
SYMBOL voltage 16 96 R0
WINDOW 123 0 0 Left 0
WINDOW 39 0 0 Left 0
SYMATTR InstName V1
SYMATTR Value AC 1
SYMBOL cap 272 112 R0
SYMATTR InstName C1
SYMATTR Value 1µ
SYMBOL res 240 16 R90
WINDOW 0 0 56 VBottom 2
WINDOW 3 32 56 VTop 2
SYMATTR InstName R1
SYMATTR Value 2k
TEXT -208 200 Left 2 !.ac dec 20 1 20k
